Version 4
SHEET 1 1316 1252
WIRE 208 -16 208 -64
WIRE 208 96 208 64
WIRE 208 96 176 96
WIRE 240 96 208 96
WIRE 208 240 208 96
WIRE 208 240 0 240
WIRE 384 240 208 240
WIRE -176 272 -368 272
WIRE -160 272 -176 272
WIRE 560 272 544 272
WIRE 736 272 560 272
WIRE 96 304 96 96
WIRE 96 304 0 304
WIRE 320 304 320 96
WIRE 384 304 320 304
WIRE -96 352 -112 352
WIRE 496 352 480 352
WIRE 208 400 208 240
WIRE -112 416 -112 352
WIRE -32 416 -32 352
WIRE 416 416 416 352
WIRE 496 416 496 352
WIRE -240 464 -592 464
WIRE 208 464 208 400
WIRE 208 464 -240 464
WIRE 608 464 208 464
WIRE 976 464 608 464
WIRE -624 496 -688 496
WIRE -592 496 -592 464
WIRE 560 496 560 272
WIRE 560 496 -16 496
WIRE 976 496 976 464
WIRE 1072 496 1008 496
WIRE -176 512 -176 272
WIRE 432 512 -176 512
WIRE -624 528 -624 496
WIRE 1008 528 1008 496
WIRE -624 576 -624 560
WIRE -624 576 -688 576
WIRE -368 576 -368 272
WIRE -16 576 -16 496
WIRE 432 576 432 512
WIRE 736 576 736 272
WIRE 1008 576 1008 560
WIRE 1072 576 1008 576
WIRE -592 768 -592 592
WIRE -576 768 -592 768
WIRE -480 768 -512 768
WIRE -368 768 -368 656
WIRE -368 768 -400 768
WIRE -336 768 -368 768
WIRE -240 768 -240 464
WIRE -240 768 -272 768
WIRE -208 768 -240 768
WIRE -144 768 -160 768
WIRE -16 768 -16 656
WIRE -16 768 -144 768
WIRE 16 768 -16 768
WIRE 112 768 96 768
WIRE 192 768 176 768
WIRE 240 768 224 768
WIRE 336 768 304 768
WIRE 432 768 432 656
WIRE 432 768 416 768
WIRE 512 768 432 768
WIRE 608 768 608 464
WIRE 608 768 576 768
WIRE 656 768 608 768
WIRE 736 768 736 656
WIRE 736 768 720 768
WIRE 768 768 736 768
WIRE 880 768 848 768
WIRE 976 768 976 592
WIRE 976 768 944 768
WIRE -592 864 -592 768
WIRE 224 864 224 768
WIRE 224 864 -592 864
WIRE 192 880 192 768
WIRE 976 880 976 768
WIRE 976 880 192 880
FLAG 208 -64 0
FLAG 208 400 Cap_GND
SYMBOL voltage 192 96 R90
WINDOW 0 -32 56 VBottom 2
WINDOW 3 32 56 VTop 2
WINDOW 123 0 0 Left 0
WINDOW 39 0 0 Left 0
SYMATTR InstName V1
SYMATTR Value 400
SYMBOL SPDT 448 272 M0
SYMATTR InstName X1
SYMBOL SPDT -64 272 R0
SYMATTR InstName X2
SYMBOL res 192 -32 R0
SYMATTR InstName R1
SYMATTR Value 50
SYMBOL SPST-NC -592 544 R90
SYMATTR InstName X3
SYMBOL diode -576 784 R270
WINDOW 0 32 32 VTop 2
WINDOW 3 0 32 VBottom 2
SYMATTR InstName D1
SYMBOL res -384 752 R90
WINDOW 0 0 56 VBottom 2
WINDOW 3 32 56 VTop 2
SYMATTR InstName R2
SYMATTR Value 15
SYMBOL cap -272 752 R90
WINDOW 0 0 32 VBottom 2
WINDOW 3 32 32 VTop 2
SYMATTR InstName C1
SYMATTR Value 36m
SYMATTR SpiceLine V=450
SYMBOL cap -144 752 R90
WINDOW 0 0 32 VBottom 2
WINDOW 3 32 32 VTop 2
SYMATTR InstName C2
SYMATTR Value 36m
SYMATTR SpiceLine V=450
SYMBOL res 112 752 R90
WINDOW 0 0 56 VBottom 2
WINDOW 3 32 56 VTop 2
SYMATTR InstName R5
SYMATTR Value 15
SYMBOL diode 112 784 R270
WINDOW 0 32 32 VTop 2
WINDOW 3 0 32 VBottom 2
SYMATTR InstName D2
SYMBOL SPST-NC 976 544 R270
SYMATTR InstName X4
SYMBOL diode 240 784 R270
WINDOW 0 32 32 VTop 2
WINDOW 3 0 32 VBottom 2
SYMATTR InstName D3
SYMBOL res 432 752 R90
WINDOW 0 0 56 VBottom 2
WINDOW 3 32 56 VTop 2
SYMATTR InstName R6
SYMATTR Value 15
SYMBOL cap 576 752 R90
WINDOW 0 0 32 VBottom 2
WINDOW 3 32 32 VTop 2
SYMATTR InstName C3
SYMATTR Value 36m
SYMATTR SpiceLine V=450
SYMBOL cap 720 752 R90
WINDOW 0 0 32 VBottom 2
WINDOW 3 32 32 VTop 2
SYMATTR InstName C4
SYMATTR Value 36m
SYMATTR SpiceLine V=450
SYMBOL res 864 752 R90
WINDOW 0 0 56 VBottom 2
WINDOW 3 32 56 VTop 2
SYMATTR InstName R7
SYMATTR Value 15
SYMBOL diode 880 784 R270
WINDOW 0 32 32 VTop 2
WINDOW 3 0 32 VBottom 2
SYMATTR InstName D4
SYMBOL res -384 560 R0
SYMATTR InstName R3
SYMATTR Value 1k
SYMBOL res -32 560 R0
SYMATTR InstName R4
SYMATTR Value 1k
SYMBOL res 416 560 R0
SYMATTR InstName R8
SYMATTR Value 1k
SYMBOL res 720 560 R0
SYMATTR InstName R9
SYMATTR Value 1k
SYMBOL voltage 400 416 R270
WINDOW 0 32 56 VTop 2
WINDOW 3 -32 56 VBottom 2
WINDOW 123 0 0 Left 0
WINDOW 39 0 0 Left 0
SYMATTR InstName V3
SYMATTR Value 10
SYMBOL voltage -16 416 R90
WINDOW 0 -32 56 VBottom 2
WINDOW 3 32 56 VTop 2
WINDOW 123 0 0 Left 0
WINDOW 39 0 0 Left 0
SYMATTR InstName V4
SYMATTR Value 10
SYMBOL voltage 1072 480 R0
WINDOW 123 0 0 Left 0
WINDOW 39 0 0 Left 0
SYMATTR InstName V5
SYMATTR Value 10
SYMBOL voltage -688 592 R180
WINDOW 0 24 96 Left 2
WINDOW 3 24 16 Left 2
WINDOW 123 0 0 Left 0
WINDOW 39 0 0 Left 0
SYMATTR InstName V6
SYMATTR Value 10
SYMBOL voltage 336 96 R90
WINDOW 0 -32 56 VBottom 2
WINDOW 3 32 56 VTop 2
WINDOW 123 0 0 Left 0
WINDOW 39 0 0 Left 0
SYMATTR InstName V2
SYMATTR Value 400
TEXT -856 -376 Left 2 ;Cap Bank
TEXT 416 -120 Left 2 ;Note: Make sure to keep V3=V4 and V5=V6
TEXT 432 984 Left 2 !.tran .1
RECTANGLE Normal 1088 1024 -880 -352 1
