Version 4
SHEET 1 1048 1176
WIRE 224 -48 224 -96
WIRE 224 64 224 32
WIRE 224 64 192 64
WIRE 256 64 224 64
WIRE 224 208 224 64
WIRE 224 208 16 208
WIRE 400 208 224 208
WIRE -144 240 -368 240
WIRE 576 240 560 240
WIRE 112 272 112 64
WIRE 112 272 16 272
WIRE 336 272 336 64
WIRE 400 272 336 272
WIRE -80 320 -96 320
WIRE 512 320 496 320
WIRE -96 384 -96 320
WIRE -16 384 -16 320
WIRE 432 384 432 320
WIRE 512 384 512 320
WIRE -480 496 -528 496
WIRE -160 496 -384 496
WIRE 224 496 224 208
WIRE 224 496 -160 496
WIRE 272 496 224 496
WIRE 384 496 368 496
WIRE -448 528 -496 528
WIRE 304 528 272 528
WIRE 352 528 336 528
WIRE 576 560 576 240
WIRE 576 560 16 560
WIRE -496 592 -496 528
WIRE -416 592 -416 528
WIRE -368 592 -368 240
WIRE -160 592 -160 496
WIRE 16 592 16 560
WIRE 272 608 272 528
WIRE 352 608 352 528
WIRE -528 720 -528 496
WIRE -464 720 -528 720
WIRE -368 720 -368 672
WIRE -368 720 -400 720
WIRE -272 720 -368 720
WIRE -160 720 -160 672
WIRE -160 720 -208 720
WIRE -96 720 -160 720
WIRE 16 720 16 672
WIRE 16 720 -32 720
WIRE 64 720 16 720
WIRE 192 720 144 720
WIRE 384 720 384 496
WIRE 384 720 256 720
WIRE -368 960 -368 720
WIRE -160 960 -160 720
WIRE 16 960 16 720
FLAG 224 -96 0
SYMBOL voltage 208 64 R90
WINDOW 0 -32 56 VBottom 2
WINDOW 3 32 56 VTop 2
WINDOW 123 0 0 Left 0
WINDOW 39 0 0 Left 0
SYMATTR InstName V1
SYMATTR Value 400
SYMBOL res 208 -64 R0
SYMATTR InstName R1
SYMATTR Value 50
SYMBOL voltage 416 384 R270
WINDOW 0 32 56 VTop 2
WINDOW 3 -32 56 VBottom 2
WINDOW 123 0 0 Left 0
WINDOW 39 0 0 Left 0
SYMATTR InstName V2
SYMATTR Value 5
SYMBOL voltage 0 384 R90
WINDOW 0 -32 56 VBottom 2
WINDOW 3 32 56 VTop 2
WINDOW 123 0 0 Left 0
WINDOW 39 0 0 Left 0
SYMATTR InstName V3
SYMATTR Value 5
SYMBOL voltage 352 64 R90
WINDOW 0 -32 56 VBottom 2
WINDOW 3 32 56 VTop 2
WINDOW 123 0 0 Left 0
WINDOW 39 0 0 Left 0
SYMATTR InstName V4
SYMATTR Value 400
SYMBOL diode -464 736 R270
WINDOW 0 32 32 VTop 2
WINDOW 3 0 32 VBottom 2
SYMATTR InstName D1
SYMBOL cap -208 704 R90
WINDOW 0 0 32 VBottom 2
WINDOW 3 32 32 VTop 2
WINDOW 40 60 32 VTop 2
SYMATTR InstName C1
SYMATTR Value 36mf
SYMATTR SpiceLine2 IC=0
SYMBOL diode 192 736 R270
WINDOW 0 32 32 VTop 2
WINDOW 3 0 32 VBottom 2
SYMATTR InstName D2
SYMBOL res -384 576 R0
SYMATTR InstName R4
SYMATTR Value 1k
SYMBOL res -176 576 R0
SYMATTR InstName R2
SYMATTR Value 15
SYMBOL cap -32 704 R90
WINDOW 0 0 32 VBottom 2
WINDOW 3 32 32 VTop 2
WINDOW 40 60 32 VTop 2
SYMATTR InstName C2
SYMATTR Value 36mf
SYMATTR SpiceLine2 IC=0
SYMBOL res 0 576 R0
SYMATTR InstName R3
SYMATTR Value 1k
SYMBOL res 160 704 R90
WINDOW 0 0 56 VBottom 2
WINDOW 3 32 56 VTop 2
SYMATTR InstName R5
SYMATTR Value 15
SYMBOL voltage -400 592 R90
WINDOW 0 -32 56 VBottom 2
WINDOW 3 32 56 VTop 2
WINDOW 123 0 0 Left 0
WINDOW 39 0 0 Left 0
SYMATTR InstName V5
SYMATTR Value 10
SYMBOL voltage 368 608 R90
WINDOW 0 -32 56 VBottom 2
WINDOW 3 32 56 VTop 2
WINDOW 123 0 0 Left 0
WINDOW 39 0 0 Left 0
SYMATTR InstName V6
SYMATTR Value 10
SYMBOL SPDT 464 240 M0
SYMATTR InstName X1
SYMBOL SPDT -48 240 R0
SYMATTR InstName X2
SYMBOL SPST-NC 320 496 R0
SYMATTR InstName X3
SYMBOL SPST-NC -432 496 R0
SYMATTR InstName X4
TEXT 576 752 Left 2 !.tran 120
