Version 4
SHEET 1 2364 680
WIRE 192 -160 176 -160
WIRE 208 -160 192 -160
WIRE 192 -144 192 -160
WIRE 96 -64 96 -160
WIRE 144 -64 96 -64
WIRE 288 -64 288 -160
WIRE 288 -64 224 -64
WIRE -128 -48 -128 -96
WIRE 640 -48 640 -96
WIRE 144 80 144 -64
WIRE 224 80 224 -64
WIRE -128 128 -128 32
WIRE 128 128 -128 128
WIRE 640 128 640 32
WIRE 640 128 240 128
WIRE 128 160 -128 160
WIRE 640 160 240 160
WIRE 160 192 144 192
WIRE 224 192 208 192
WIRE -128 272 -128 160
WIRE 640 272 640 160
WIRE 144 352 144 192
WIRE 144 352 80 352
WIRE 224 352 224 192
WIRE 304 352 224 352
WIRE -128 400 -128 352
WIRE 640 400 640 352
WIRE 80 416 80 352
WIRE 80 576 80 496
WIRE 144 576 80 576
WIRE 304 576 304 352
WIRE 304 576 224 576
FLAG 640 400 0
FLAG 640 -96 0
FLAG -128 -96 0
FLAG -128 400 0
FLAG 192 -144 0
SYMBOL voltage 640 48 R180
WINDOW 0 32 56 VTop 2
WINDOW 3 -32 56 VBottom 2
WINDOW 123 0 0 Left 0
WINDOW 39 0 0 Left 0
SYMATTR InstName V3
SYMATTR Value PULSE(5 0 0 0 0 10u 20u 80)
SYMBOL H-Bridge 192 160 R0
SYMATTR InstName X1
SYMBOL res 64 400 R0
SYMATTR InstName R2
SYMATTR Value 5
SYMBOL ind 240 560 R90
WINDOW 0 5 56 VBottom 2
WINDOW 3 32 56 VTop 2
SYMATTR InstName L1
SYMATTR Value 1000µ
SYMBOL voltage 640 256 R0
WINDOW 0 32 56 VTop 2
WINDOW 3 -32 56 VBottom 2
WINDOW 123 0 0 Left 0
WINDOW 39 0 0 Left 0
SYMATTR InstName V4
SYMATTR Value 5
SYMBOL voltage -128 256 R0
WINDOW 0 32 56 VTop 2
WINDOW 3 -32 56 VBottom 2
WINDOW 123 0 0 Left 0
WINDOW 39 0 0 Left 0
SYMATTR InstName V5
SYMATTR Value 0
SYMBOL voltage -128 48 R180
WINDOW 0 32 56 VTop 2
WINDOW 3 -32 56 VBottom 2
WINDOW 123 0 0 Left 0
WINDOW 39 0 0 Left 0
SYMATTR InstName V6
SYMATTR Value PULSE(0 5 0 0 0 10u 20u 80)
SYMBOL voltage 304 -160 R90
WINDOW 0 -32 56 VBottom 2
WINDOW 3 32 56 VTop 2
WINDOW 123 0 0 Left 0
WINDOW 39 0 0 Left 0
SYMATTR InstName V1
SYMATTR Value 5
SYMBOL voltage 192 -160 R90
WINDOW 0 -32 56 VBottom 2
WINDOW 3 32 56 VTop 2
WINDOW 123 0 0 Left 0
WINDOW 39 0 0 Left 0
SYMATTR InstName V2
SYMATTR Value 5
TEXT 336 304 Left 2 !.tran 0 4m 0
